
                 *** WAVEWATCH III  Input pre-processing ***  
               ===============================================

  Comment character is '$'


 *** WAVEWATCH III ERROR IN W3IOGR : 
     ERROR IN OPENING FILE
     IOSTAT =  209

