$ ---------------------------------------------------------------
$ WAVEWATCH III Field preprocessor input file
$ ---------------------------------------------------------------
   'WND' 'LL' T T
$
   277.00 305.0 124 22.0 48.00 105
  'NAME' 1 1 '(..T..)' '(..T..)'
  20 'fort.12'
$
$ ---------------------------------------------------------------
$ end of input file
$ ---------------------------------------------------------------
